case14.m
function mpc = case14
%CASE14

%% MATPOWER Case Format : Version 2
mpc.version = '2';

%%-----  Power Flow Data  -----%%
%% system MVA base
mpc.baseMVA = 100;

%% bus data
%	bus_i	type	Pd	Qd	Gs	Bs	area	Vm	Va	baseKV	zone	Vmax	Vmin
mpc.bus = [
	1	3	0	0	0	0	1	1.06	0	138	1	1.1	0.9;
	2	2	21.7	12.7	0	0	1	1.045	-4.9826	138	1	1.1	0.9;
	3	2	94.2	19	0	0	1	1.01	-12.725	138	1	1.1	0.9;
	4	1	47.8	-3.9	0	0	1	1.01767	-10.3128	138	1	1.1	0.9;
	5	1	7.6	1.6	0	0	1	1.01951	-8.7738	138	1	1.1	0.9;
	6	2	11.2	7.5	0	0	1	1.07	-14.2209	138	1	1.1	0.9;
	7	1	0	0	0	0	1	1.06152	-13.3596	138	1	1.1	0.9;
	8	2	0	0	0	0	1	1.09	-13.3596	138	1	1.1	0.9;
	9	1	29.5	16.6	0	19	1	1.05593	-14.9385	138	1	1.1	0.9;
	10	1	9	5.8	0	0	1	1.05099	-15.0972	138	1	1.1	0.9;
	11	1	3.5	1.8	0	0	1	1.05691	-14.7906	138	1	1.1	0.9;
	12	1	6.1	1.6	0	0	1	1.05519	-15.0755	138	1	1.1	0.9;
	13	1	13.5	5.8	0	0	1	1.05038	-15.1562	138	1	1.1	0.9;
	14	1	14.9	5	0	0	1	1.03553	-16.0336	138	1	1.1	0.9;
];

%% generator data
%	bus	Pg	Qg	Qmax	Qmin	Vg	mBase	status	Pmax	Pmin	Pc1	Pc2	Qc1min	Qc1max	Qc2min	Qc2max	ramp_agc	ramp_10	ramp_30	ramp_q	apf
mpc.gen = [
	1	232.392	-16.549	0	0	1.06	615	1	10000	-10000	0	0	0	0	0	0	0	0	0	0	0;
	2	40	43.556	50	-40	1.045	60	1	10000	-10000	0	0	0	0	0	0	0	0	0	0	0;
	3	0	25.075	40	0	1.01	60	1	10000	-10000	0	0	0	0	0	0	0	0	0	0	0;
	6	0	12.73	24	-6	1.07	25	1	10000	-10000	0	0	0	0	0	0	0	0	0	0	0;
	8	0	17.623	24	-6	1.09	25	1	10000	-10000	0	0	0	0	0	0	0	0	0	0	0;
];

%% branch data
%	fbus	tbus	r	x	b	rateA	rateB	rateC	ratio	angle	status	angmin	angmax
mpc.branch = [
	1	2	0.01938	0.05917	0.0528	0	0	0	0	0	1	-360	360;
	1	5	0.05403	0.22304	0.0492	0	0	0	0	0	1	-360	360;
	2	3	0.04699	0.19797	0.0438	0	0	0	0	0	1	-360	360;
	2	4	0.05811	0.17632	0.034	0	0	0	0	0	1	-360	360;
	2	5	0.05695	0.17388	0.0346	0	0	0	0	0	1	-360	360;
	3	4	0.06701	0.17103	0.0128	0	0	0	0	0	1	-360	360;
	4	5	0.01335	0.04211	0	0	0	0	0	0	1	-360	360;
	6	11	0.09498	0.1989	0	0	0	0	0	0	1	-360	360;
	6	12	0.12291	0.25581	0	0	0	0	0	0	1	-360	360;
	6	13	0.06615	0.13027	0	0	0	0	0	0	1	-360	360;
	7	8	0	0.17615	0	0	0	0	0	0	1	-360	360;
	7	9	0	0.11001	0	0	0	0	0	0	1	-360	360;
	9	10	0.03181	0.0845	0	0	0	0	0	0	1	-360	360;
	9	14	0.12711	0.27038	0	0	0	0	0	0	1	-360	360;
	10	11	0.08205	0.19207	0	0	0	0	0	0	1	-360	360;
	12	13	0.22092	0.19988	0	0	0	0	0	0	1	-360	360;
	13	14	0.17093	0.34802	0	0	0	0	0	0	1	-360	360;
	4	7	0	0.20912	0	0	0	0	0.978	0	1	-360	360;
	4	9	0	0.55618	0	0	0	0	0.969	0	1	-360	360;
	5	6	0	0.25202	0	0	0	0	0.932	0	1	-360	360;
];

%% bus names
mpc.bus_name = {
	'Bus 1       ';
	'Bus 2       ';
	'Bus 3       ';
	'Bus 4       ';
	'Bus 5       ';
	'Bus 6       ';
	'Bus 7       ';
	'Bus 8       ';
	'Bus 9       ';
	'Bus 10      ';
	'Bus 11      ';
	'Bus 12      ';
	'Bus 13      ';
	'Bus 14      ';
};
